Version 4
SHEET 1 880 952
WIRE 192 -16 -16 -16
WIRE -656 48 -784 48
WIRE -624 48 -656 48
WIRE -448 48 -544 48
WIRE -304 48 -448 48
WIRE 192 48 192 -16
WIRE -448 80 -448 48
WIRE -1568 96 -1568 32
WIRE -656 96 -656 48
WIRE -1104 128 -1248 128
WIRE -1056 128 -1104 128
WIRE -784 128 -784 48
WIRE -784 128 -880 128
WIRE -736 128 -784 128
WIRE -1248 160 -1248 128
WIRE -1056 160 -1152 160
WIRE -784 160 -880 160
WIRE -16 160 -16 -16
WIRE 64 160 -16 160
WIRE 336 160 320 160
WIRE 368 160 336 160
WIRE 480 160 368 160
WIRE -304 176 -304 48
WIRE 480 176 480 160
WIRE -1152 192 -1152 160
WIRE -1056 192 -1152 192
WIRE -800 192 -880 192
WIRE -784 192 -784 160
WIRE -736 192 -784 192
WIRE -1104 224 -1104 128
WIRE -1056 224 -1104 224
WIRE -832 224 -880 224
WIRE -800 224 -800 192
WIRE -448 224 -448 160
WIRE -448 224 -800 224
WIRE -1568 240 -1568 176
WIRE -448 240 -448 224
WIRE -1248 288 -1248 224
WIRE -1152 288 -1152 192
WIRE -1152 288 -1248 288
WIRE -832 288 -832 224
WIRE -832 288 -1152 288
WIRE 192 304 192 272
WIRE 288 304 192 304
WIRE -1248 320 -1248 288
WIRE 288 320 288 304
WIRE -656 336 -656 160
WIRE -448 336 -448 320
WIRE -448 336 -656 336
WIRE -304 336 -304 240
WIRE -304 336 -448 336
WIRE -448 352 -448 336
WIRE 192 400 192 384
WIRE 288 400 288 384
WIRE 288 400 192 400
WIRE 192 416 192 400
FLAG -16 224 0
FLAG 368 224 0
FLAG 192 416 0
FLAG -1568 240 0
FLAG -1568 32 24V
FLAG -16 -16 7V5
FLAG 336 160 6V
FLAG 480 256 0
FLAG -1248 320 0
FLAG -448 352 0
FLAG -1248 128 24V
FLAG -304 48 7V5
SYMBOL PowerProducts\\LT3083 192 160 R0
SYMATTR InstName U1
SYMBOL cap -32 160 R0
SYMATTR InstName C1
SYMATTR Value 10µ
SYMBOL cap 352 160 R0
WINDOW 0 38 26 Left 2
SYMATTR InstName C4
SYMATTR Value 10µ
SYMBOL res 176 288 R0
SYMATTR InstName R1
SYMATTR Value 120k
SYMBOL cap 272 320 R0
SYMATTR InstName C5
SYMATTR Value 0.1µ
SYMBOL voltage -1568 80 R0
SYMATTR InstName V1
SYMBOL res 464 160 R0
SYMATTR InstName R7
SYMATTR Value 6k
SYMBOL TPS5450_TRANS -976 176 R0
SYMATTR InstName U3
SYMBOL cap -1264 160 R0
SYMATTR InstName C2
SYMATTR Value 22µ
SYMBOL cap -720 192 R180
WINDOW 0 24 56 Left 2
WINDOW 3 24 8 Left 2
SYMATTR InstName C3
SYMATTR Value 10n
SYMBOL ind -640 64 R270
WINDOW 0 32 56 VTop 2
WINDOW 3 5 56 VBottom 2
SYMATTR InstName L2
SYMATTR Value 15µ
SYMBOL res -464 64 R0
SYMATTR InstName R2
SYMATTR Value 10k
SYMBOL res -464 224 R0
SYMATTR InstName R5
SYMATTR Value 1k96
SYMBOL cap -320 176 R0
SYMATTR InstName C6
SYMATTR Value 220µ
SYMBOL schottky -640 160 R180
WINDOW 0 24 64 Left 2
WINDOW 3 -54 -2 Left 2
SYMATTR InstName D2
SYMATTR Value B540C
SYMATTR Description Diode
SYMATTR Type diode
TEXT -1256 -232 Left 2 ;*SBR10U200P5 Spice Model v1.0 Last Revised 2/24/2015  Diodes Inc SUPER BARRIER RECTIFIER\n SIMULATOR=SPICE3\n.MODEL DI_SBR10U200P5 D  ( IS=35.49n RS=15.06m BV=220.0 IBV=10.00\n+ CJO=1.190n M=412.1m N=1.366 TT=21.70n EG=480.0m VJ=61.27m )
TEXT -1602 936 Left 2 !.tran 0 100u 0 0.1u uic
